* 4 bit comparator using subtractors

** B - A: A > B in greater: 1 if True
.subckt comp_sub_4b a0 a1 a2 a3 b0 b1 b2 b3 greater vdd
*inverters
Xa0 a0 na0 vdd Inv
Xa1 a1 na1 vdd Inv
Xa2 a2 na2 vdd Inv
Xa3 a3 na3 vdd Inv
*adders
Xadd na0 na1 na2 na3 b0 b1 b2 b3 vdd s0 s1 s2 greater vdd rca4b
.ends
